<?xml version="1.0" encoding="UTF-8"?>

<!-- generated on 2025-08-02 19:00:00 by Eclipse SUMO netconvert Version 1.24.0
<netconvertConfiguration xmlns:xsi="http://www.w3.org/2001/XMLSchema-instance" xsi:noNamespaceSchemaLocation="http://sumo.dlr.de/xsd/netconvertConfiguration.xsd">

    <input>
        <osm-files value="planet_map.osm.gz"/>
    </input>

    <output>
        <output-file value="map.net.xml"/>
    </output>

    <projection>
        <proj.utm value="true"/>
    </projection>

</netconvertConfiguration>
-->

<net version="1.20" junctionCornerDetail="5" limitTurnSpeed="5.50" xmlns:xsi="http://www.w3.org/2001/XMLSchema-instance" xsi:noNamespaceSchemaLocation="http://sumo.dlr.de/xsd/net_file.xsd">

    <location netOffset="-769843.98,-1430930.43" convBoundary="0.00,0.00,318.51,216.79" origBoundary="77.487015,12.932015,77.489948,12.933962" projParameter="+proj=utm +zone=43 +ellps=WGS84 +datum=WGS84 +units=m +no_defs"/>

    <type id="highway.primary" priority="12" numLanes="2" speed="27.78" disallow="tram rail_urban rail rail_electric rail_fast ship container cable_car subway aircraft wheelchair scooter drone" oneway="0"/>
    <type id="highway.residential" priority="3" numLanes="1" speed="13.89" disallow="tram rail_urban rail rail_electric rail_fast ship container cable_car subway aircraft wheelchair scooter drone" oneway="0"/>
    <type id="highway.secondary" priority="11" numLanes="1" speed="27.78" disallow="tram rail_urban rail rail_electric rail_fast ship container cable_car subway aircraft wheelchair scooter drone" oneway="0"/>
    <type id="highway.secondary_link" priority="6" numLanes="1" speed="22.22" disallow="tram rail_urban rail rail_electric rail_fast ship container cable_car subway aircraft wheelchair scooter drone" oneway="0"/>
    <type id="highway.service" priority="1" numLanes="1" speed="5.56" allow="pedestrian delivery bicycle" oneway="0"/>

    <edge id=":10064058104_0" function="internal">
        <lane id=":10064058104_0_0" index="0" allow="pedestrian delivery bicycle" speed="4.98" length="5.07" shape="175.14,26.78 174.65,25.47 173.86,24.66 172.77,24.34 171.38,24.52"/>
    </edge>
    <edge id=":10064058104_1" function="internal">
        <lane id=":10064058104_1_0" index="0" allow="pedestrian delivery bicycle" speed="5.56" length="9.49" shape="175.14,26.78 172.94,17.55"/>
    </edge>
    <edge id=":10064058104_2" function="internal">
        <lane id=":10064058104_2_0" index="0" allow="pedestrian delivery bicycle" speed="5.56" length="10.29" shape="175.14,26.78 174.91,23.94 175.62,21.69 177.25,20.05 179.80,19.00"/>
    </edge>
    <edge id=":10064058104_3" function="internal">
        <lane id=":10064058104_3_0" index="0" allow="pedestrian delivery bicycle" speed="3.65" length="4.67" shape="175.14,26.78 175.66,25.44 176.36,24.88 177.23,25.10 178.26,26.10"/>
    </edge>
    <edge id=":10064058104_4" function="internal">
        <lane id=":10064058104_4_0" index="0" allow="pedestrian delivery bicycle" speed="5.18" length="5.23" shape="180.57,22.11 179.30,22.64 178.49,23.48 178.14,24.63 178.26,26.10"/>
    </edge>
    <edge id=":10064058104_5" function="internal">
        <lane id=":10064058104_5_0" index="0" allow="pedestrian delivery bicycle" speed="5.56" length="9.50" shape="180.57,22.11 171.38,24.52"/>
    </edge>
    <edge id=":10064058104_6" function="internal">
        <lane id=":10064058104_6_0" index="0" allow="pedestrian delivery bicycle" speed="5.56" length="10.11" shape="180.57,22.11 177.82,22.38 175.63,21.72 174.00,20.11 172.94,17.55"/>
    </edge>
    <edge id=":10064058104_7" function="internal">
        <lane id=":10064058104_7_0" index="0" allow="pedestrian delivery bicycle" speed="3.65" length="4.67" shape="180.57,22.11 179.21,21.62 178.63,20.94 178.83,20.06 179.80,19.00"/>
    </edge>
    <edge id=":10064058104_8" function="internal">
        <lane id=":10064058104_8_0" index="0" allow="pedestrian delivery bicycle" speed="5.05" length="4.99" shape="176.04,16.75 176.56,18.01 177.37,18.81 178.45,19.14 179.80,19.00"/>
    </edge>
    <edge id=":10064058104_9" function="internal">
        <lane id=":10064058104_9_0" index="0" allow="pedestrian delivery bicycle" speed="5.56" length="9.61" shape="176.04,16.75 178.26,26.10"/>
    </edge>
    <edge id=":10064058104_10" function="internal">
        <lane id=":10064058104_10_0" index="0" allow="pedestrian delivery bicycle" speed="5.56" length="10.29" shape="176.04,16.75 176.33,19.50 175.65,21.72 174.00,23.39 171.38,24.52"/>
    </edge>
    <edge id=":10064058104_11" function="internal">
        <lane id=":10064058104_11_0" index="0" allow="pedestrian delivery bicycle" speed="3.65" length="4.67" shape="176.04,16.75 175.57,18.11 174.89,18.70 174.02,18.51 172.94,17.55"/>
    </edge>
    <edge id=":10064058104_12" function="internal">
        <lane id=":10064058104_12_0" index="0" allow="pedestrian delivery bicycle" speed="5.15" length="5.20" shape="170.52,21.44 171.87,20.86 172.72,20.02 173.08,18.92 172.94,17.55"/>
    </edge>
    <edge id=":10064058104_13" function="internal">
        <lane id=":10064058104_13_0" index="0" allow="pedestrian delivery bicycle" speed="5.56" length="9.60" shape="170.52,21.44 179.80,19.00"/>
    </edge>
    <edge id=":10064058104_14" function="internal">
        <lane id=":10064058104_14_0" index="0" allow="pedestrian delivery bicycle" speed="5.56" length="10.44" shape="170.52,21.44 173.38,21.07 175.63,21.72 177.25,23.40 178.26,26.10"/>
    </edge>
    <edge id=":10064058104_15" function="internal">
        <lane id=":10064058104_15_0" index="0" allow="pedestrian delivery bicycle" speed="3.65" length="4.67" shape="170.52,21.44 171.89,21.89 172.49,22.55 172.32,23.43 171.38,24.52"/>
    </edge>
    <edge id=":10064058106_0" function="internal">
        <lane id=":10064058106_0_0" index="0" allow="pedestrian delivery bicycle" speed="5.56" length="0.16" shape="197.38,17.96 197.23,17.99"/>
    </edge>
    <edge id=":10064058106_1" function="internal">
        <lane id=":10064058106_1_0" index="0" allow="pedestrian delivery bicycle" speed="5.56" length="0.28" shape="196.46,14.88 196.74,14.82"/>
    </edge>
    <edge id=":10064058113_0" function="internal">
        <lane id=":10064058113_0_0" index="0" disallow="tram rail_urban rail rail_electric rail_fast ship container cable_car subway aircraft wheelchair scooter drone" speed="3.65" length="4.67" shape="275.70,3.85 277.07,4.30 277.67,4.97 277.50,5.84 276.55,6.93"/>
    </edge>
    <edge id=":10064058114_0" function="internal">
        <lane id=":10064058114_0_0" index="0" disallow="tram rail_urban rail rail_electric rail_fast ship container cable_car subway aircraft wheelchair scooter drone" speed="3.65" length="4.67" shape="239.51,123.37 238.17,122.82 237.63,122.11 237.86,121.25 238.89,120.23"/>
    </edge>
    <edge id=":10064058115_0" function="internal">
        <lane id=":10064058115_0_0" index="0" disallow="tram rail_urban rail rail_electric rail_fast ship container cable_car subway aircraft wheelchair scooter drone" speed="6.67" length="9.24" shape="275.30,121.94 274.38,119.66 272.91,118.18 270.89,117.53 268.32,117.68"/>
    </edge>
    <edge id=":10064058115_1" function="internal">
        <lane id=":10064058115_1_0" index="0" disallow="tram rail_urban rail rail_electric rail_fast ship container cable_car subway aircraft wheelchair scooter drone" speed="13.89" length="14.41" shape="275.30,121.94 271.93,107.93"/>
    </edge>
    <edge id=":10064058115_2" function="internal">
        <lane id=":10064058115_2_0" index="0" disallow="tram rail_urban rail rail_electric rail_fast ship container cable_car subway aircraft wheelchair scooter drone" speed="3.65" length="1.44" shape="275.30,121.94 275.80,120.59"/>
    </edge>
    <edge id=":10064058115_9" function="internal">
        <lane id=":10064058115_9_0" index="0" disallow="tram rail_urban rail rail_electric rail_fast ship container cable_car subway aircraft wheelchair scooter drone" speed="3.65" length="3.23" shape="275.80,120.59 276.48,120.01 277.35,120.21 278.41,121.19"/>
    </edge>
    <edge id=":10064058115_3" function="internal">
        <lane id=":10064058115_3_0" index="0" disallow="tram rail_urban rail rail_electric rail_fast ship container cable_car subway aircraft wheelchair scooter drone" speed="13.89" length="14.41" shape="275.04,107.19 278.41,121.19"/>
    </edge>
    <edge id=":10064058115_4" function="internal">
        <lane id=":10064058115_4_0" index="0" disallow="tram rail_urban rail rail_electric rail_fast ship container cable_car subway aircraft wheelchair scooter drone" speed="7.93" length="4.10" shape="275.04,107.19 275.41,111.12 275.37,111.26"/>
    </edge>
    <edge id=":10064058115_5" function="internal">
        <lane id=":10064058115_5_0" index="0" disallow="tram rail_urban rail rail_electric rail_fast ship container cable_car subway aircraft wheelchair scooter drone" speed="3.65" length="1.44" shape="275.04,107.19 274.55,108.54"/>
    </edge>
    <edge id=":10064058115_10" function="internal">
        <lane id=":10064058115_10_0" index="0" disallow="tram rail_urban rail rail_electric rail_fast ship container cable_car subway aircraft wheelchair scooter drone" speed="7.93" length="10.25" shape="275.37,111.26 274.42,114.19 272.05,116.37 268.32,117.68"/>
    </edge>
    <edge id=":10064058115_11" function="internal">
        <lane id=":10064058115_11_0" index="0" disallow="tram rail_urban rail rail_electric rail_fast ship container cable_car subway aircraft wheelchair scooter drone" speed="3.65" length="3.23" shape="274.55,108.54 273.86,109.12 272.99,108.91 271.93,107.93"/>
    </edge>
    <edge id=":10064058115_6" function="internal">
        <lane id=":10064058115_6_0" index="0" disallow="tram rail_urban rail rail_electric rail_fast ship container cable_car subway aircraft wheelchair scooter drone" speed="6.42" length="9.04" shape="267.70,114.54 270.05,113.72 271.54,112.34 272.17,110.41 271.93,107.93"/>
    </edge>
    <edge id=":10064058115_7" function="internal">
        <lane id=":10064058115_7_0" index="0" disallow="tram rail_urban rail rail_electric rail_fast ship container cable_car subway aircraft wheelchair scooter drone" speed="8.14" length="14.25" shape="267.70,114.54 271.63,114.31 274.73,115.35 276.99,117.64 278.41,121.19"/>
    </edge>
    <edge id=":10064058115_8" function="internal">
        <lane id=":10064058115_8_0" index="0" disallow="tram rail_urban rail rail_electric rail_fast ship container cable_car subway aircraft wheelchair scooter drone" speed="3.65" length="4.67" shape="267.70,114.54 269.03,115.09 269.58,115.80 269.34,116.66 268.32,117.68"/>
    </edge>
    <edge id=":10064058117_0" function="internal">
        <lane id=":10064058117_0_0" index="0" disallow="tram rail_urban rail rail_electric rail_fast ship container cable_car subway aircraft wheelchair scooter drone" speed="13.89" length="0.26" shape="291.16,189.76 291.10,189.50"/>
    </edge>
    <edge id=":10064058117_1" function="internal">
        <lane id=":10064058117_1_0" index="0" disallow="tram rail_urban rail rail_electric rail_fast ship container cable_car subway aircraft wheelchair scooter drone" speed="13.89" length="0.31" shape="294.21,188.75 294.28,189.06"/>
    </edge>
    <edge id=":12203619537_0" function="internal">
        <lane id=":12203619537_0_0" index="0" allow="pedestrian delivery bicycle" speed="3.71" length="2.28" shape="202.29,18.16 202.10,17.67 201.74,17.36 201.19,17.25 200.47,17.32"/>
    </edge>
    <edge id=":12203619537_1" function="internal">
        <lane id=":12203619537_1_0" index="0" disallow="tram rail_urban rail rail_electric rail_fast ship container cable_car subway aircraft wheelchair scooter drone" speed="3.65" length="4.67" shape="202.29,18.16 202.88,16.84 203.60,16.31 204.46,16.57 205.45,17.62"/>
    </edge>
    <edge id=":12203619537_2" function="internal">
        <lane id=":12203619537_2_0" index="0" allow="pedestrian delivery bicycle" speed="5.95" length="7.56" shape="199.83,14.19 202.01,14.03 203.67,14.55 204.81,15.75 205.45,17.62"/>
    </edge>
    <edge id=":12203621175_0" function="internal">
        <lane id=":12203621175_0_0" index="0" disallow="tram rail_urban rail rail_electric rail_fast ship container cable_car subway aircraft wheelchair scooter drone" speed="13.89" length="9.40" shape="182.96,32.28 173.85,34.57"/>
    </edge>
    <edge id=":12203621175_1" function="internal">
        <lane id=":12203621175_1_0" index="0" allow="pedestrian delivery bicycle" speed="6.84" length="3.28" shape="182.96,32.28 180.16,32.57 179.72,32.43"/>
    </edge>
    <edge id=":12203621175_7" function="internal">
        <lane id=":12203621175_7_0" index="0" allow="pedestrian delivery bicycle" speed="6.84" length="6.99" shape="179.72,32.43 177.95,31.89 176.34,30.23 175.32,27.60"/>
    </edge>
    <edge id=":12203621175_2" function="internal">
        <lane id=":12203621175_2_0" index="0" allow="pedestrian delivery bicycle" speed="5.02" length="5.03" shape="178.44,26.88 178.94,28.17 179.73,28.98 180.81,29.32 182.18,29.17"/>
    </edge>
    <edge id=":12203621175_3" function="internal">
        <lane id=":12203621175_3_0" index="0" allow="pedestrian delivery bicycle" speed="6.92" length="10.17" shape="178.44,26.88 178.68,29.68 178.00,31.89 176.39,33.52 173.85,34.57"/>
    </edge>
    <edge id=":12203621175_4" function="internal">
        <lane id=":12203621175_4_0" index="0" allow="pedestrian delivery bicycle" speed="3.65" length="4.67" shape="178.44,26.88 177.93,28.23 177.24,28.80 176.37,28.59 175.32,27.60"/>
    </edge>
    <edge id=":12203621175_5" function="internal">
        <lane id=":12203621175_5_0" index="0" allow="pedestrian delivery bicycle" speed="5.11" length="5.09" shape="173.06,31.47 174.32,30.95 175.11,30.13 175.45,29.01 175.32,27.60"/>
    </edge>
    <edge id=":12203621175_6" function="internal">
        <lane id=":12203621175_6_0" index="0" disallow="tram rail_urban rail rail_electric rail_fast ship container cable_car subway aircraft wheelchair scooter drone" speed="13.89" length="9.40" shape="173.06,31.47 182.18,29.17"/>
    </edge>
    <edge id=":12203621177_0" function="internal">
        <lane id=":12203621177_0_0" index="0" allow="pedestrian delivery bicycle" speed="3.65" length="4.67" shape="159.83,27.74 158.46,27.29 157.86,26.63 158.03,25.75 158.97,24.65"/>
    </edge>
    <edge id=":12203621180_0" function="internal">
        <lane id=":12203621180_0_0" index="0" allow="pedestrian delivery bicycle" speed="3.65" length="4.67" shape="189.69,5.18 190.55,6.34 190.67,7.22 190.02,7.85 188.63,8.20"/>
    </edge>
    <edge id=":12203627542_0" function="internal">
        <lane id=":12203627542_0_0" index="0" disallow="tram rail_urban rail rail_electric rail_fast ship container cable_car subway aircraft wheelchair scooter drone" speed="10.09" length="12.46" shape="152.11,46.26 151.12,41.50 150.13,37.97 149.15,35.68 148.16,34.62"/>
    </edge>
    <edge id=":12203627542_1" function="internal">
        <lane id=":12203627542_1_0" index="0" disallow="tram rail_urban rail rail_electric rail_fast ship container cable_car subway aircraft wheelchair scooter drone" speed="9.21" length="3.24" shape="152.11,46.26 152.09,43.12 152.13,43.02"/>
    </edge>
    <edge id=":12203627542_2" function="internal">
        <lane id=":12203627542_2_0" index="0" disallow="tram rail_urban rail rail_electric rail_fast ship container cable_car subway aircraft wheelchair scooter drone" speed="3.66" length="1.34" shape="152.11,46.26 152.78,45.11"/>
    </edge>
    <edge id=":12203627542_9" function="internal">
        <lane id=":12203627542_9_0" index="0" disallow="tram rail_urban rail rail_electric rail_fast ship container cable_car subway aircraft wheelchair scooter drone" speed="9.21" length="10.87" shape="152.13,43.02 153.25,40.21 155.57,37.51 159.06,35.03"/>
    </edge>
    <edge id=":12203627542_10" function="internal">
        <lane id=":12203627542_10_0" index="0" disallow="tram rail_urban rail rail_electric rail_fast ship container cable_car subway aircraft wheelchair scooter drone" speed="3.66" length="3.37" shape="152.78,45.11 152.84,45.00 153.63,44.56 154.45,44.91 155.33,46.07"/>
    </edge>
    <edge id=":12203627542_3" function="internal">
        <lane id=":12203627542_3_0" index="0" disallow="tram rail_urban rail rail_electric rail_fast ship container cable_car subway aircraft wheelchair scooter drone" speed="7.29" length="11.02" shape="160.71,37.88 157.90,39.01 156.07,40.76 155.21,43.11 155.33,46.07"/>
    </edge>
    <edge id=":12203627542_4" function="internal">
        <lane id=":12203627542_4_0" index="0" disallow="tram rail_urban rail rail_electric rail_fast ship container cable_car subway aircraft wheelchair scooter drone" speed="13.53" length="13.27" shape="160.71,37.88 157.34,38.18 154.33,37.48 151.37,36.17 148.16,34.62"/>
    </edge>
    <edge id=":12203627542_5" function="internal">
        <lane id=":12203627542_5_0" index="0" disallow="tram rail_urban rail rail_electric rail_fast ship container cable_car subway aircraft wheelchair scooter drone" speed="3.82" length="4.80" shape="160.71,37.88 159.23,37.78 158.46,37.28 158.41,36.36 159.06,35.03"/>
    </edge>
    <edge id=":12203627542_6" function="internal">
        <lane id=":12203627542_6_0" index="0" disallow="tram rail_urban rail rail_electric rail_fast ship container cable_car subway aircraft wheelchair scooter drone" speed="8.13" length="7.73" shape="151.76,32.74 154.59,33.96 156.75,34.74 158.24,35.10 159.06,35.03"/>
    </edge>
    <edge id=":12203627542_7" function="internal">
        <lane id=":12203627542_7_0" index="0" disallow="tram rail_urban rail rail_electric rail_fast ship container cable_car subway aircraft wheelchair scooter drone" speed="10.64" length="13.88" shape="151.76,32.74 152.44,33.78 153.26,36.35 154.22,40.45 155.33,46.07"/>
    </edge>
    <edge id=":12203627542_8" function="internal">
        <lane id=":12203627542_8_0" index="0" disallow="tram rail_urban rail rail_electric rail_fast ship container cable_car subway aircraft wheelchair scooter drone" speed="3.97" length="2.15" shape="151.76,32.74 151.57,34.56 151.38,34.82"/>
    </edge>
    <edge id=":12203627542_11" function="internal">
        <lane id=":12203627542_11_0" index="0" disallow="tram rail_urban rail rail_electric rail_fast ship container cable_car subway aircraft wheelchair scooter drone" speed="3.97" length="3.77" shape="151.38,34.82 150.90,35.48 149.77,35.50 148.16,34.62"/>
    </edge>
    <edge id=":12203627547_0" function="internal">
        <lane id=":12203627547_0_0" index="0" disallow="tram rail_urban rail rail_electric rail_fast ship container cable_car subway aircraft wheelchair scooter drone" speed="3.65" length="4.67" shape="134.57,63.33 133.22,62.83 132.65,62.14 132.85,61.27 133.83,60.21"/>
    </edge>
    <edge id=":12203627550_0" function="internal">
        <lane id=":12203627550_0_0" index="0" disallow="tram rail_urban rail rail_electric rail_fast ship container cable_car subway aircraft wheelchair scooter drone" speed="3.65" length="4.67" shape="136.87,35.47 135.50,35.01 134.91,34.34 135.08,33.46 136.03,32.38"/>
    </edge>
    <edge id=":1635307806_0" function="internal">
        <lane id=":1635307806_0_0" index="0" disallow="tram rail_urban rail rail_electric rail_fast ship container cable_car subway aircraft wheelchair scooter drone" speed="13.89" length="0.31" shape="285.84,166.85 285.78,166.55"/>
    </edge>
    <edge id=":1635307806_1" function="internal">
        <lane id=":1635307806_1_0" index="0" disallow="tram rail_urban rail rail_electric rail_fast ship container cable_car subway aircraft wheelchair scooter drone" speed="13.89" length="0.26" shape="288.91,165.89 288.96,166.14"/>
    </edge>
    <edge id=":1635307822_0" function="internal">
        <lane id=":1635307822_0_0" index="0" disallow="tram rail_urban rail rail_electric rail_fast ship container cable_car subway aircraft wheelchair scooter drone" speed="6.49" length="9.09" shape="283.39,155.22 282.53,152.89 281.13,151.41 279.18,150.77 276.68,150.97"/>
    </edge>
    <edge id=":1635307822_1" function="internal">
        <lane id=":1635307822_1_0" index="0" disallow="tram rail_urban rail rail_electric rail_fast ship container cable_car subway aircraft wheelchair scooter drone" speed="13.89" length="14.31" shape="283.39,155.22 280.10,141.29"/>
    </edge>
    <edge id=":1635307822_2" function="internal">
        <lane id=":1635307822_2_0" index="0" disallow="tram rail_urban rail rail_electric rail_fast ship container cable_car subway aircraft wheelchair scooter drone" speed="3.65" length="1.44" shape="283.39,155.22 283.92,153.88"/>
    </edge>
    <edge id=":1635307822_9" function="internal">
        <lane id=":1635307822_9_0" index="0" disallow="tram rail_urban rail rail_electric rail_fast ship container cable_car subway aircraft wheelchair scooter drone" speed="3.65" length="3.23" shape="283.92,153.88 284.62,153.33 285.49,153.55 286.52,154.56"/>
    </edge>
    <edge id=":1635307822_3" function="internal">
        <lane id=":1635307822_3_0" index="0" disallow="tram rail_urban rail rail_electric rail_fast ship container cable_car subway aircraft wheelchair scooter drone" speed="13.89" length="14.46" shape="283.20,140.48 286.52,154.56"/>
    </edge>
    <edge id=":1635307822_4" function="internal">
        <lane id=":1635307822_4_0" index="0" disallow="tram rail_urban rail rail_electric rail_fast ship container cable_car subway aircraft wheelchair scooter drone" speed="7.91" length="4.20" shape="283.20,140.48 283.63,144.33 283.53,144.64"/>
    </edge>
    <edge id=":1635307822_5" function="internal">
        <lane id=":1635307822_5_0" index="0" disallow="tram rail_urban rail rail_electric rail_fast ship container cable_car subway aircraft wheelchair scooter drone" speed="3.65" length="1.44" shape="283.20,140.48 282.73,141.85"/>
    </edge>
    <edge id=":1635307822_10" function="internal">
        <lane id=":1635307822_10_0" index="0" disallow="tram rail_urban rail rail_electric rail_fast ship container cable_car subway aircraft wheelchair scooter drone" speed="7.91" length="9.99" shape="283.53,144.64 282.68,147.36 280.37,149.58 276.68,150.97"/>
    </edge>
    <edge id=":1635307822_11" function="internal">
        <lane id=":1635307822_11_0" index="0" disallow="tram rail_urban rail rail_electric rail_fast ship container cable_car subway aircraft wheelchair scooter drone" speed="3.65" length="3.23" shape="282.73,141.85 282.05,142.44 281.18,142.25 280.10,141.29"/>
    </edge>
    <edge id=":1635307822_6" function="internal">
        <lane id=":1635307822_6_0" index="0" disallow="tram rail_urban rail rail_electric rail_fast ship container cable_car subway aircraft wheelchair scooter drone" speed="6.39" length="8.90" shape="275.97,147.85 278.30,146.97 279.76,145.59 280.36,143.70 280.10,141.29"/>
    </edge>
    <edge id=":1635307822_7" function="internal">
        <lane id=":1635307822_7_0" index="0" disallow="tram rail_urban rail rail_electric rail_fast ship container cable_car subway aircraft wheelchair scooter drone" speed="7.99" length="14.30" shape="275.97,147.85 279.90,147.53 282.97,148.54 285.17,150.89 286.52,154.56"/>
    </edge>
    <edge id=":1635307822_8" function="internal">
        <lane id=":1635307822_8_0" index="0" disallow="tram rail_urban rail rail_electric rail_fast ship container cable_car subway aircraft wheelchair scooter drone" speed="3.65" length="4.67" shape="275.97,147.85 277.32,148.37 277.89,149.06 277.67,149.93 276.68,150.97"/>
    </edge>
    <edge id=":1635308085_0" function="internal">
        <lane id=":1635308085_0_0" index="0" disallow="tram rail_urban rail rail_electric rail_fast ship container cable_car subway aircraft wheelchair scooter drone" speed="6.08" length="7.78" shape="160.52,210.63 158.39,210.77 156.73,210.20 155.54,208.90 154.82,206.89"/>
    </edge>
    <edge id=":1635308085_1" function="internal">
        <lane id=":1635308085_1_0" index="0" disallow="tram rail_urban rail rail_electric rail_fast ship container cable_car subway aircraft wheelchair scooter drone" speed="3.90" length="2.59" shape="157.95,206.25 158.19,206.92 158.59,207.35 159.14,207.55 159.85,207.50"/>
    </edge>
    <edge id=":1635308120_0" function="internal">
        <lane id=":1635308120_0_0" index="0" disallow="tram rail_urban rail rail_electric rail_fast ship container cable_car subway aircraft wheelchair scooter drone" speed="3.65" length="4.67" shape="300.42,216.43 299.90,217.78 299.21,218.35 298.35,218.14 297.30,217.15"/>
    </edge>
    <edge id=":1635308210_0" function="internal">
        <lane id=":1635308210_0_0" index="0" disallow="tram rail_urban rail rail_electric rail_fast ship container cable_car subway aircraft wheelchair scooter drone" speed="13.89" length="0.31" shape="296.61,214.17 296.54,213.87"/>
    </edge>
    <edge id=":1635308210_1" function="internal">
        <lane id=":1635308210_1_0" index="0" disallow="tram rail_urban rail rail_electric rail_fast ship container cable_car subway aircraft wheelchair scooter drone" speed="13.89" length="0.29" shape="299.67,213.17 299.73,213.45"/>
    </edge>
    <edge id=":1635308241_0" function="internal">
        <lane id=":1635308241_0_0" index="0" disallow="tram rail_urban rail rail_electric rail_fast ship container cable_car subway aircraft wheelchair scooter drone" speed="6.61" length="9.14" shape="290.91,188.71 289.99,186.42 288.54,184.96 286.55,184.31 284.04,184.49"/>
    </edge>
    <edge id=":1635308241_1" function="internal">
        <lane id=":1635308241_1_0" index="0" disallow="tram rail_urban rail rail_electric rail_fast ship container cable_car subway aircraft wheelchair scooter drone" speed="13.89" length="14.38" shape="290.91,188.71 287.63,174.71"/>
    </edge>
    <edge id=":1635308241_2" function="internal">
        <lane id=":1635308241_2_0" index="0" disallow="tram rail_urban rail rail_electric rail_fast ship container cable_car subway aircraft wheelchair scooter drone" speed="3.65" length="1.44" shape="290.91,188.71 291.40,187.36"/>
    </edge>
    <edge id=":1635308241_9" function="internal">
        <lane id=":1635308241_9_0" index="0" disallow="tram rail_urban rail rail_electric rail_fast ship container cable_car subway aircraft wheelchair scooter drone" speed="3.65" length="3.23" shape="291.40,187.36 292.09,186.78 292.96,186.98 294.02,187.96"/>
    </edge>
    <edge id=":1635308241_3" function="internal">
        <lane id=":1635308241_3_0" index="0" disallow="tram rail_urban rail rail_electric rail_fast ship container cable_car subway aircraft wheelchair scooter drone" speed="13.89" length="14.34" shape="290.75,174.00 294.02,187.96"/>
    </edge>
    <edge id=":1635308241_4" function="internal">
        <lane id=":1635308241_4_0" index="0" disallow="tram rail_urban rail rail_electric rail_fast ship container cable_car subway aircraft wheelchair scooter drone" speed="7.97" length="4.03" shape="290.75,174.00 291.07,177.90 291.03,178.01"/>
    </edge>
    <edge id=":1635308241_5" function="internal">
        <lane id=":1635308241_5_0" index="0" disallow="tram rail_urban rail rail_electric rail_fast ship container cable_car subway aircraft wheelchair scooter drone" speed="3.65" length="1.44" shape="290.75,174.00 290.24,175.35"/>
    </edge>
    <edge id=":1635308241_10" function="internal">
        <lane id=":1635308241_10_0" index="0" disallow="tram rail_urban rail rail_electric rail_fast ship container cable_car subway aircraft wheelchair scooter drone" speed="7.97" length="10.22" shape="291.03,178.01 290.06,180.95 287.71,183.15 284.04,184.49"/>
    </edge>
    <edge id=":1635308241_11" function="internal">
        <lane id=":1635308241_11_0" index="0" disallow="tram rail_urban rail rail_electric rail_fast ship container cable_car subway aircraft wheelchair scooter drone" speed="3.65" length="3.23" shape="290.24,175.35 289.54,175.92 288.68,175.70 287.63,174.71"/>
    </edge>
    <edge id=":1635308241_6" function="internal">
        <lane id=":1635308241_6_0" index="0" disallow="tram rail_urban rail rail_electric rail_fast ship container cable_car subway aircraft wheelchair scooter drone" speed="6.47" length="9.03" shape="283.37,181.36 285.70,180.51 287.19,179.11 287.83,177.18 287.63,174.71"/>
    </edge>
    <edge id=":1635308241_7" function="internal">
        <lane id=":1635308241_7_0" index="0" disallow="tram rail_urban rail rail_electric rail_fast ship container cable_car subway aircraft wheelchair scooter drone" speed="8.08" length="14.20" shape="283.37,181.36 287.27,181.09 290.34,182.10 292.59,184.39 294.02,187.96"/>
    </edge>
    <edge id=":1635308241_8" function="internal">
        <lane id=":1635308241_8_0" index="0" disallow="tram rail_urban rail rail_electric rail_fast ship container cable_car subway aircraft wheelchair scooter drone" speed="3.65" length="4.67" shape="283.37,181.36 284.71,181.89 285.27,182.59 285.04,183.46 284.04,184.49"/>
    </edge>
    <edge id=":1646559722_0" function="internal">
        <lane id=":1646559722_0_0" index="0" disallow="tram rail_urban rail rail_electric rail_fast ship container cable_car subway aircraft wheelchair scooter drone" speed="6.93" length="9.46" shape="40.70,49.67 39.76,47.36 38.26,45.82 36.20,45.04 33.58,45.03"/>
    </edge>
    <edge id=":1646559722_1" function="internal">
        <lane id=":1646559722_1_0" index="0" disallow="tram rail_urban rail rail_electric rail_fast ship container cable_car subway aircraft wheelchair scooter drone" speed="13.89" length="14.48" shape="40.70,49.67 37.65,35.52"/>
    </edge>
    <edge id=":1646559722_2" function="internal">
        <lane id=":1646559722_2_0" index="0" disallow="tram rail_urban rail rail_electric rail_fast ship container cable_car subway aircraft wheelchair scooter drone" speed="3.65" length="1.45" shape="40.70,49.67 41.29,48.35"/>
    </edge>
    <edge id=":1646559722_9" function="internal">