<?xml version="1.0" encoding="UTF-8"?>

<!-- generated on 2025-08-02 19:14:45.679796 by randomTrips.py v1_24_0+0000-b72eb3fabc8
<configuration>
    <net-file value="map.net.xml"/>
    <output-trip-file value="map.rou.xml"/>
    <end value="5.0"/>
</configuration>
-->

<routes xmlns:xsi="http://www.w3.org/2001/XMLSchema-instance" xsi:noNamespaceSchemaLocation="http://sumo.dlr.de/xsd/routes_file.xsd">
    <trip id="0" depart="0.00" from="-151809046" to="-151809004#1"/>
    <trip id="1" depart="1.00" from="151809049" to="151809004#1"/>
    <trip id="2" depart="2.00" from="489040258" to="-150633020#1"/>
    <trip id="3" depart="3.00" from="150633026" to="150633020#1"/>
    <trip id="4" depart="4.00" from="-150633020#7" to="150633020#3"/>
</routes>
